data_image0
_cell_length_a       5.59874
_cell_length_b       5.59874
_cell_length_c       5.59874
_cell_angle_alpha    30.8919
_cell_angle_beta     30.8919
_cell_angle_gamma    30.8919

_symmetry_space_group_name_H-M    "P 1"
_symmetry_int_tables_number       1

loop_
  _symmetry_equiv_pos_as_xyz
  'x, y, z'

loop_
  _atom_site_label
  _atom_site_occupancy
  _atom_site_fract_x
  _atom_site_fract_y
  _atom_site_fract_z
  _atom_site_thermal_displace_type
  _atom_site_B_iso_or_equiv
  _atom_site_type_symbol
  Na1      1.0000 0.00000  0.00000  0.00000  Biso   1.000  Na
  Ga1      1.0000 0.50000  0.50000  0.50000  Biso   1.000  Ga
  O1       1.0000 0.23266  0.23267  0.23290  Biso   1.000  O
  O2       1.0000 0.76734  0.76733  0.76710  Biso   1.000  O
