# generated using pymatgen
data_MoO3
_symmetry_space_group_name_H-M   'P 1'
_cell_length_a   3.76102500
_cell_length_b   3.96930400
_cell_length_c   14.42544600
_cell_angle_alpha   90.00000000
_cell_angle_beta   90.00000000
_cell_angle_gamma   90.00000000
_symmetry_Int_Tables_number   1
_chemical_formula_structural   MoO3
_chemical_formula_sum   'Mo4 O12'
_cell_volume   215.35245717
_cell_formula_units_Z   4
loop_
 _symmetry_equiv_pos_site_id
 _symmetry_equiv_pos_as_xyz
  1  'x, y, z'
loop_
 _atom_site_type_symbol
 _atom_site_label
 _atom_site_symmetry_multiplicity
 _atom_site_fract_x
 _atom_site_fract_y
 _atom_site_fract_z
 _atom_site_occupancy
  Mo  Mo0  1  0.25000000  0.92411500  0.60248700  1
  Mo  Mo1  1  0.75000000  0.42411500  0.89751300  1
  Mo  Mo2  1  0.25000000  0.57588500  0.10248700  1
  Mo  Mo3  1  0.75000000  0.07588500  0.39751300  1
  O  O4  1  0.75000000  0.97828000  0.91163100  1
  O  O5  1  0.25000000  0.47828000  0.58836900  1
  O  O6  1  0.25000000  0.02172000  0.08836900  1
  O  O7  1  0.75000000  0.52172000  0.41163100  1
  O  O8  1  0.75000000  0.46301200  0.78020300  1
  O  O9  1  0.25000000  0.96301200  0.71979700  1
  O  O10  1  0.75000000  0.03698800  0.28020300  1
  O  O11  1  0.25000000  0.53698800  0.21979700  1
  O  O12  1  0.25000000  0.49603900  0.93501600  1
  O  O13  1  0.25000000  0.00396100  0.43501600  1
  O  O14  1  0.75000000  0.50396100  0.06498400  1
  O  O15  1  0.75000000  0.99603900  0.56498400  1
