# generated using pymatgen
data_MoO3
_symmetry_space_group_name_H-M   'P 1'
_cell_length_a   3.76102500
_cell_length_b   3.96930400
_cell_length_c   18.80512000
_cell_angle_alpha   90.00000000
_cell_angle_beta   90.00000000
_cell_angle_gamma   90.00000000
_symmetry_Int_Tables_number   1
_chemical_formula_structural   MoO3
_chemical_formula_sum   'Mo2 O6'
_cell_volume   280.73508434
_cell_formula_units_Z   2
loop_
 _symmetry_equiv_pos_site_id
 _symmetry_equiv_pos_as_xyz
  1  'x, y, z'
loop_
 _atom_site_type_symbol
 _atom_site_label
 _atom_site_symmetry_multiplicity
 _atom_site_fract_x
 _atom_site_fract_y
 _atom_site_fract_z
 _atom_site_occupancy
  Mo  Mo0  1  0.75000000  0.42277383  0.92222223  1
  Mo  Mo1  1  0.25000000  0.57722617  0.07777777  1
  O  O2  1  0.75000000  0.98248877  0.93319429  1
  O  O3  1  0.25000000  0.01751123  0.06680571  1
  O  O4  1  0.75000000  0.46798367  0.83327796  1
  O  O5  1  0.25000000  0.53201633  0.16672204  1
  O  O6  1  0.25000000  0.49439646  0.94969674  1
  O  O7  1  0.75000000  0.50560354  0.05030326  1
